/*--------------------------------*- C++ -*----------------------------------*\
| =========                 |                                                 |
| \\      /  F ield         | OpenFOAM: The Open Source CFD Toolbox           |
|  \\    /   O peration     | Version:  v1906                                 |
|   \\  /    A nd           | Web:      www.OpenFOAM.com                      |
|    \\/     M anipulation  |                                                 |
\*---------------------------------------------------------------------------*/
FoamFile
{
    version     2.0;
    format      ascii;
    class       polyBoundaryMesh;
    location    "constant/polyMesh";
    object      boundary;
}
// * * * * * * * * * * * * * * * * * * * * * * * * * * * * * * * * * * * * * //

10
(
    front
    {
        type            patch;
        nFaces          45;
        startFace       37423;
    }
    top
    {
        type            patch;
        nFaces          0;
        startFace       37468;
    }
    inlet
    {
        type            patch;
        nFaces          65;
        startFace       37468;
    }
    bottom
    {
        type            patch;
        nFaces          1128;
        startFace       37533;
    }
    outlet
    {
        type            patch;
        nFaces          0;
        startFace       38661;
    }
    back
    {
        type            patch;
        nFaces          35;
        startFace       38661;
    }
    peak
    {
        type            patch;
        nFaces          914;
        startFace       38696;
    }
    procBoundary0to1
    {
        type            processor;
        inGroups        1(processor);
        nFaces          564;
        startFace       39610;
        matchTolerance  0.0001;
        transform       unknown;
        myProcNo        0;
        neighbProcNo    1;
    }
    procBoundary0to2
    {
        type            processor;
        inGroups        1(processor);
        nFaces          925;
        startFace       40174;
        matchTolerance  0.0001;
        transform       unknown;
        myProcNo        0;
        neighbProcNo    2;
    }
    procBoundary0to3
    {
        type            processor;
        inGroups        1(processor);
        nFaces          2;
        startFace       41099;
        matchTolerance  0.0001;
        transform       unknown;
        myProcNo        0;
        neighbProcNo    3;
    }
)

// ************************************************************************* //
