/*--------------------------------*- C++ -*----------------------------------*\
| =========                 |                                                 |
| \\      /  F ield         | OpenFOAM: The Open Source CFD Toolbox           |
|  \\    /   O peration     | Version:  v1906                                 |
|   \\  /    A nd           | Web:      www.OpenFOAM.com                      |
|    \\/     M anipulation  |                                                 |
\*---------------------------------------------------------------------------*/
FoamFile
{
    version     2.0;
    format      ascii;
    class       polyBoundaryMesh;
    location    "constant/polyMesh";
    object      boundary;
}
// * * * * * * * * * * * * * * * * * * * * * * * * * * * * * * * * * * * * * //

10
(
    front
    {
        type            patch;
        nFaces          279;
        startFace       37377;
    }
    top
    {
        type            patch;
        nFaces          375;
        startFace       37656;
    }
    inlet
    {
        type            patch;
        nFaces          0;
        startFace       38031;
    }
    bottom
    {
        type            patch;
        nFaces          0;
        startFace       38031;
    }
    outlet
    {
        type            patch;
        nFaces          630;
        startFace       38031;
    }
    back
    {
        type            patch;
        nFaces          258;
        startFace       38661;
    }
    peak
    {
        type            patch;
        nFaces          63;
        startFace       38919;
    }
    procBoundary3to0
    {
        type            processor;
        inGroups        1(processor);
        nFaces          2;
        startFace       38982;
        matchTolerance  0.0001;
        transform       unknown;
        myProcNo        3;
        neighbProcNo    0;
    }
    procBoundary3to1
    {
        type            processor;
        inGroups        1(processor);
        nFaces          1326;
        startFace       38984;
        matchTolerance  0.0001;
        transform       unknown;
        myProcNo        3;
        neighbProcNo    1;
    }
    procBoundary3to2
    {
        type            processor;
        inGroups        1(processor);
        nFaces          841;
        startFace       40310;
        matchTolerance  0.0001;
        transform       unknown;
        myProcNo        3;
        neighbProcNo    2;
    }
)

// ************************************************************************* //
