/*--------------------------------*- C++ -*----------------------------------*\
| =========                 |                                                 |
| \\      /  F ield         | OpenFOAM: The Open Source CFD Toolbox           |
|  \\    /   O peration     | Version:  v1906                                 |
|   \\  /    A nd           | Web:      www.OpenFOAM.com                      |
|    \\/     M anipulation  |                                                 |
\*---------------------------------------------------------------------------*/
FoamFile
{
    version     2.0;
    format      ascii;
    class       polyBoundaryMesh;
    location    "constant/polyMesh";
    object      boundary;
}
// * * * * * * * * * * * * * * * * * * * * * * * * * * * * * * * * * * * * * //

9
(
    back
    {
        type            patch;
        nFaces          36;
        startFace       16104;
    }
    bottom
    {
        type            patch;
        nFaces          4;
        startFace       16140;
    }
    top
    {
        type            patch;
        nFaces          42;
        startFace       16144;
    }
    outlet
    {
        type            patch;
        nFaces          0;
        startFace       16186;
    }
    inlet
    {
        type            patch;
        nFaces          67;
        startFace       16186;
    }
    front
    {
        type            patch;
        nFaces          41;
        startFace       16253;
    }
    procBoundary2to0
    {
        type            processor;
        inGroups        1(processor);
        nFaces          1031;
        startFace       16294;
        matchTolerance  0.0001;
        transform       unknown;
        myProcNo        2;
        neighbProcNo    0;
    }
    procBoundary2to1
    {
        type            processor;
        inGroups        1(processor);
        nFaces          129;
        startFace       17325;
        matchTolerance  0.0001;
        transform       unknown;
        myProcNo        2;
        neighbProcNo    1;
    }
    procBoundary2to3
    {
        type            processor;
        inGroups        1(processor);
        nFaces          298;
        startFace       17454;
        matchTolerance  0.0001;
        transform       unknown;
        myProcNo        2;
        neighbProcNo    3;
    }
)

// ************************************************************************* //
